hmd.cli: Relative humidity file names - file written by SWAT+ editor 2020-10-04 22:33:34.148618
filename
sthmd10000.hmd
sthmd10001.hmd
sthmd10002.hmd
sthmd10003.hmd
sthmd10004.hmd
sthmd10005.hmd
sthmd10006.hmd
sthmd10007.hmd
sthmd10008.hmd
sthmd10009.hmd
sthmd10010.hmd
sthmd10011.hmd
