slr.cli: Solar radiation file names - file written by SWAT+ editor 2020-10-04 22:33:39.730359
filename
stslr10000.slr
stslr10001.slr
stslr10002.slr
stslr10003.slr
stslr10004.slr
stslr10005.slr
stslr10006.slr
stslr10007.slr
stslr10008.slr
stslr10009.slr
stslr10010.slr
stslr10011.slr
