tmp.cli: Temperature file names - file written by SWAT+ editor 2020-10-04 22:33:41.820358
filename
sttmp10000.tmp
sttmp10001.tmp
sttmp10002.tmp
sttmp10003.tmp
sttmp10004.tmp
sttmp10005.tmp
sttmp10006.tmp
sttmp10007.tmp
sttmp10008.tmp
sttmp10009.tmp
sttmp10010.tmp
sttmp10011.tmp
