weather-wgn.cli: written by SWAT+ editor v1.2.3 on 2021-01-23 05:28
180s309e                      -17.95320      30.93750    1357.00000        32  
 tmp_max_ave   tmp_min_ave    tmp_max_sd    tmp_min_sd       pcp_ave        pcp_sd      pcp_skew       wet_dry       wet_wet      pcp_days       pcp_hhr       slr_ave       dew_ave       wnd_ave  
    27.79020      15.64600       4.21316       1.48329     170.64800       8.61525       3.27397       0.30141       0.43799      19.90620      28.42160      20.28090       0.72977       2.40730  
    27.10870      15.16260       4.05357       1.65701     147.04400       9.41277       3.68917       0.25134       0.46038      16.56250      28.41970      20.14220       0.74857       2.50668  
    27.12780      14.49400       3.68864       1.80701      85.20550       6.14601       6.17054       0.22938       0.43434      15.46880      32.97990      19.39950       0.73020       2.53306  
    26.46750      12.46740       3.28556       2.18354      29.12910       3.29812       7.84378       0.13250       0.34156       7.59375      15.90840      19.13960       0.65773       2.57436  
    24.90450       9.59506       3.33406       2.23555      10.51370       1.79145      10.41630       0.05593       0.31959       3.03125      11.68590      18.32940       0.59132       2.54285  
    22.62390       7.24282       3.00725       2.33614       2.45892       0.44546       9.62807       0.04102       0.25862       1.81250       2.64238      17.55830       0.57804       2.74370  
    22.45300       7.01689       3.18602       2.09406       1.76248       0.27877       5.83230       0.03826       0.23529       1.59375       1.00456      18.59370       0.55818       3.02086  
    25.69760       8.78825       3.31984       2.46813       1.38171       0.37063      12.63320       0.02070       0.19231       0.81250       2.58410      22.30500       0.47036       3.28170  
    29.89200      12.01620       3.36871       2.69874       1.84992       0.68655      20.14850       0.01597       0.23810       0.65625       6.23826      25.77860       0.39057       3.66802  
    31.09970      14.57540       3.39564       2.38301      19.50150       2.86819       8.68631       0.06873       0.32773       3.71875      17.22960      24.91370       0.42995       3.72080  
    30.82300      15.94310       3.72959       1.91357      51.05520       4.63758       5.36552       0.16849       0.40752       9.96875      18.84940      21.88940       0.50784       3.15834  
    28.50360      15.89870       4.38884       1.56807     179.59100       9.76847       3.06084       0.32552       0.43167      18.75000      25.60730      20.12450       0.67117       2.54120  
180s312e                      -17.95320      31.25000    1544.00000        32  
 tmp_max_ave   tmp_min_ave    tmp_max_sd    tmp_min_sd       pcp_ave        pcp_sd      pcp_skew       wet_dry       wet_wet      pcp_days       pcp_hhr       slr_ave       dew_ave       wnd_ave  
    27.28660      15.13260       4.21629       1.59070     177.24000       8.81851       2.79415       0.31700       0.44496      20.15620      23.99830      20.32710       0.74432       2.30293  
    26.58310      14.66520       4.07498       1.78609     152.51200       9.88123       4.22974       0.24294       0.46909      17.18750      33.97670      19.92390       0.76563       2.39084  
    26.63400      13.91440       3.72267       1.94009      83.48040       6.14284       6.29662       0.24790       0.41861      16.12500      31.44900      19.07640       0.74933       2.38157  
    25.84470      11.70940       3.31885       2.35348      27.88350       3.17341       7.79192       0.14045       0.36694       7.75000      15.38780      18.89150       0.68259       2.40050  
    24.21730       8.74057       3.38156       2.34784      10.16730       1.63551       9.99930       0.07061       0.28319       3.53125      10.24390      18.22850       0.61965       2.37282  
    21.90420       6.36993       3.03343       2.41801       3.22174       0.50043       7.37631       0.05192       0.28378       2.31250       2.23864      17.38850       0.60857       2.56566  
    21.67260       6.19602       3.18449       2.21224       2.27516       0.33810       6.07021       0.05167       0.19048       1.96875       1.29386      18.36440       0.59007       2.82665  
    24.81990       7.72731       3.31412       2.46202       1.54053       0.35632      10.43340       0.02292       0.25000       1.00000       1.98509      22.09530       0.50397       3.02413  
    28.91010      10.88980       3.28314       2.66429       2.07737       0.71435      20.33460       0.02583       0.16129       0.96875       6.52365      25.70290       0.42204       3.40394  
    30.20420      13.51460       3.32180       2.36851      20.48860       2.96814       8.35664       0.08451       0.32857       4.37500      14.50370      24.95170       0.45949       3.45813  
    30.07880      15.06030       3.56277       1.94235      53.25900       4.59506       4.37037       0.18040       0.39117       9.90625      14.42980      22.20610       0.53199       2.97440  
    27.95300      15.24400       4.36324       1.67841     186.25700       9.77637       2.77818       0.33607       0.44175      19.31250      23.89140      20.30450       0.68842       2.41369  
180s316e                      -17.95320      31.56250    1245.00000        32  
 tmp_max_ave   tmp_min_ave    tmp_max_sd    tmp_min_sd       pcp_ave        pcp_sd      pcp_skew       wet_dry       wet_wet      pcp_days       pcp_hhr       slr_ave       dew_ave       wnd_ave  
    27.17780      15.01370       4.10024       1.67886     187.27900       9.21548       2.84105       0.34940       0.43788      20.62500      26.87930      20.61260       0.75056       2.19558  
    26.49730      14.59990       4.07311       1.85700     159.75200      10.20070       4.40305       0.28161       0.45863      17.37500      38.17280      19.98110       0.77413       2.27796  
    26.49500      13.73980       3.69463       2.02552      90.03650       6.13993       5.39663       0.27897       0.42015      16.43750      27.31300      19.07890       0.75936       2.24706  
    25.65160      11.42250       3.28063       2.47815      31.17680       3.26118       6.57564       0.14368       0.36364       8.25000      15.23940      18.76260       0.69665       2.26181  
    24.01300       8.43398       3.43109       2.45126      10.65690       1.62353       9.16466       0.06659       0.39167       3.75000       9.18886      18.08210       0.63726       2.22862  
    21.70480       6.05473       3.03085       2.50341       3.61189       0.55665       7.88188       0.04842       0.29167       2.25000       3.19693      17.17490       0.62743       2.38237  
    21.44420       5.84773       3.16787       2.39203       3.24073       0.45100       6.17052       0.05915       0.24051       2.46875       1.86042      18.09160       0.61055       2.61549  
    24.53630       7.12410       3.30218       2.47855       1.96453       0.43217      10.73740       0.02728       0.23077       1.21875       2.35760      21.82500       0.52874       2.76368  
    28.54820      10.21460       3.25166       2.66661       2.49770       0.78428      18.05930       0.02481       0.24242       1.03125       6.81384      25.58280       0.44614       3.16310  
    29.82610      12.92750       3.27674       2.41043      22.52440       3.18217       7.65283       0.09620       0.31333       4.68750      15.60230      24.89100       0.48055       3.23578  
    29.78810      14.63260       3.41849       2.03449      61.51440       5.22022       3.96443       0.17917       0.38762       9.59375      16.19800      22.50440       0.54696       2.82366  
    27.79950      15.02630       4.27553       1.77121     190.56400       9.53347       2.61344       0.35411       0.43740      19.71880      24.17380      20.71980       0.69496       2.30231  
180s319e                      -17.95320      31.87500    1483.00000        32  
 tmp_max_ave   tmp_min_ave    tmp_max_sd    tmp_min_sd       pcp_ave        pcp_sd      pcp_skew       wet_dry       wet_wet      pcp_days       pcp_hhr       slr_ave       dew_ave       wnd_ave  
    27.58310      15.46560       4.01918       1.67028     182.64000       9.61374       3.34944       0.35119       0.44512      20.50000      32.51850      20.98030       0.74526       2.09464  
    26.89180      15.08740       4.03025       1.81460     155.33900      10.63290       5.33189       0.27654       0.44689      17.06250      45.50930      20.22710       0.77178       2.16662  
    26.81200      14.20150       3.59596       1.98757      88.13650       6.12997       4.95347       0.27254       0.41379      15.40620      24.13590      19.48430       0.75602       2.15676  
    25.99750      11.86630       3.18286       2.45294      28.90010       3.00916       6.48698       0.13928       0.35950       7.56250      15.69600      18.94920       0.69581       2.20513  
    24.36220       8.91883       3.44048       2.44332       9.35740       1.34797       8.29935       0.06897       0.38843       3.78125       6.22324      17.93550       0.63988       2.17131  
    22.07650       6.53267       3.01817       2.48905       3.39710       0.56691       8.53025       0.05263       0.22388       2.09375       2.95180      16.98500       0.63098       2.29991  
    21.81110       6.22462       3.12274       2.45705       3.35872       0.50585       6.44886       0.05081       0.23881       2.09375       1.89437      17.87220       0.61421       2.51275  
    24.85410       7.38298       3.30024       2.44671       2.30895       0.50460       9.64576       0.02830       0.18421       1.18750       2.57810      21.61940       0.53649       2.66247  
    28.78540      10.39090       3.25749       2.62139       2.40946       0.81293      16.54560       0.01925       0.20000       0.78125       6.58373      25.43700       0.45655       3.10081  
    30.03530      13.10100       3.24861       2.42036      20.10760       2.88089       6.96442       0.09412       0.31690       4.43750      12.84360      24.87360       0.48868       3.17180  
    30.02130      14.89560       3.32881       2.06257      62.95970       5.40063       3.90442       0.16815       0.38889       9.00000      16.45150      22.64620       0.54926       2.76081  
    28.18320      15.45020       4.17545       1.76337     173.92300       8.76812       2.51082       0.34133       0.42857      19.03120      22.68200      21.21710       0.68798       2.23072  
180s322e                      -17.95320      32.18750    1238.00000        32  
 tmp_max_ave   tmp_min_ave    tmp_max_sd    tmp_min_sd       pcp_ave        pcp_sd      pcp_skew       wet_dry       wet_wet      pcp_days       pcp_hhr       slr_ave       dew_ave       wnd_ave  
    27.52540      16.14870       3.81053       1.57084     192.27300      10.49690       3.67638       0.36615       0.44078      20.84380      38.53390      20.84880       0.74474       2.05992  
    26.87550      15.82500       3.86338       1.66084     161.46800      11.84250       6.20823       0.32507       0.43068      16.90620      58.64190      20.05840       0.77180       2.11347  
    26.75730      14.90470       3.39116       1.85859      83.04380       6.50082       6.32025       0.28715       0.41700      15.43750      33.38010      19.68210       0.75600       2.15323  
    25.95950      12.57200       3.02119       2.36368      23.10010       2.38660       7.90497       0.14069       0.35745       7.34375      15.15800      19.02720       0.69713       2.24377  
    24.34480       9.56946       3.37694       2.39628       8.20912       1.07259       6.92921       0.06956       0.35088       3.56250       5.02041      17.65080       0.64340       2.20070  
    22.14330       7.01826       2.98862       2.52430       3.50028       0.56940       9.48825       0.05995       0.25000       2.37500       3.55863      16.73510       0.63797       2.33338  
    21.89690       6.57640       3.06714       2.53272       3.45348       0.54273       7.05153       0.04649       0.23881       2.09375       2.35700      17.68790       0.62206       2.54600  
    24.88140       7.50314       3.32267       2.55084       2.74859       0.56627       8.37689       0.03158       0.23810       1.31250       2.33236      21.41040       0.55187       2.72046  
    28.70930      10.22900       3.32833       2.69134       2.74913       0.87988      14.40370       0.02036       0.22222       0.84375       6.29713      25.19160       0.47794       3.17151  
    29.92880      13.04970       3.28470       2.52090      17.50510       2.58754       7.55386       0.08276       0.27869       3.81250      11.79460      24.89290       0.50556       3.23096  
    29.85070      15.19500       3.25834       2.05148      63.38930       5.51361       4.59307       0.17960       0.37624       9.46875      20.24150      22.49600       0.55711       2.79046  
    28.03350      16.04150       3.98946       1.69459     168.79500       8.66574       2.64449       0.29351       0.44240      18.71880      23.47500      21.11220       0.68772       2.23266  
180s325e                      -17.95320      32.50000    1165.00000        32  
 tmp_max_ave   tmp_min_ave    tmp_max_sd    tmp_min_sd       pcp_ave        pcp_sd      pcp_skew       wet_dry       wet_wet      pcp_days       pcp_hhr       slr_ave       dew_ave       wnd_ave  
    27.01790      16.21250       3.58953       1.58598     229.09300      11.95370       3.14513       0.36709       0.44379      21.12500      38.90640      20.66170       0.76334       2.13033  
    26.41000      15.94060       3.69507       1.58854     191.22900      13.49680       5.51100       0.32209       0.44637      18.06250      60.28570      19.74900       0.78970       2.17142  
    26.18590      14.93520       3.18676       1.87021      94.17000       7.56344       7.03102       0.27593       0.41373      15.93750      43.46290      19.78030       0.77634       2.25211  
    25.42070      12.65010       2.89945       2.30951      24.81450       2.41620       7.93817       0.14943       0.39394       8.25000      15.27210      19.06380       0.72016       2.33956  
    23.85780       9.72270       3.30192       2.33352      10.06840       1.24183       6.79171       0.08578       0.33571       4.37500       6.23646      17.41320       0.66748       2.26280  
    21.72780       7.22935       2.94247       2.42261       4.59511       0.66599       8.99520       0.06674       0.29670       2.84375       4.33548      16.57150       0.66109       2.40216  
    21.46450       6.76134       3.01723       2.44267       4.12108       0.59935       6.85494       0.05792       0.22078       2.40625       2.60784      17.60130       0.64292       2.63244  
    24.25670       7.60319       3.32509       2.45583       3.45385       0.65492       8.27482       0.03940       0.22642       1.65625       3.04012      21.25620       0.57606       2.79778  
    27.93900      10.16030       3.38518       2.63630       3.97074       1.19316      15.45350       0.02712       0.21053       1.18750       9.50789      24.97030       0.50401       3.21852  
    29.18190      12.92040       3.33863       2.40503      18.26630       2.40836       6.72068       0.09445       0.31034       4.53125      11.49060      25.05590       0.53124       3.28787  
    29.20570      15.03010       3.21489       2.05061      78.22090       6.46061       4.52097       0.18801       0.39067      10.71880      23.37110      22.58630       0.58171       2.84524  
    27.44550      16.00680       3.82809       1.72990     202.82800      10.27910       2.77754       0.31653       0.45614      19.59380      31.28920      20.84450       0.70971       2.29878  
183s309e                      -18.26540      30.93750    1305.00000        32  
 tmp_max_ave   tmp_min_ave    tmp_max_sd    tmp_min_sd       pcp_ave        pcp_sd      pcp_skew       wet_dry       wet_wet      pcp_days       pcp_hhr       slr_ave       dew_ave       wnd_ave  
    27.49570      15.98290       3.86708       1.51794     135.59900       7.47453       2.99509       0.24654       0.44265      17.43750      18.42580      21.84640       0.70382       2.70547  
    26.69280      15.44330       3.73395       1.69964     126.08000       9.14844       3.89122       0.21185       0.44086      14.53120      29.40240      21.63130       0.72906       2.88339  
    26.75290      14.68400       3.62755       1.81985      64.45030       5.21451       5.40560       0.18846       0.42928      12.59380      20.96240      20.55870       0.70999       2.93021  
    26.08150      12.66230       3.30423       2.26623      23.64270       3.00729      11.06970       0.09987       0.39196       6.21875      21.81320      19.69800       0.64027       3.04531  
    24.61130       9.49747       3.36914       2.32215       8.36093       1.53927      11.87180       0.05667       0.30769       2.84375      11.12650      18.57760       0.57789       3.04058  
    22.48980       7.03827       3.10740       2.54945       1.95469       0.35542       8.22310       0.04070       0.23529       1.59375       1.74116      17.51200       0.57163       3.24643  
    22.30530       6.78027       3.36025       2.21288       2.20518       0.32096       5.91068       0.04521       0.28571       1.96875       1.25330      18.51030       0.56039       3.58541  
    25.80770       8.28156       3.49721       2.62599       1.09327       0.29866      12.70850       0.02169       0.12500       0.75000       2.07581      22.22040       0.47533       3.76306  
    30.41000      11.32640       3.73028       2.85138       1.56813       0.39326      10.38280       0.01927       0.23077       0.81250       2.31434      25.76330       0.39827       3.97268  
    31.58870      14.04650       3.73191       2.58528      18.82450       2.85354       7.52938       0.06286       0.35897       3.65625      11.92020      25.11700       0.43237       3.88300  
    30.94270      15.90650       3.88825       1.97874      44.51870       4.21201       6.55680       0.17139       0.39100       9.03125      22.50950      22.38110       0.50032       3.25980  
    28.38910      16.16860       4.21134       1.62526     154.19000       9.59916       3.54809       0.23214       0.44590      16.75000      28.11690      21.25970       0.65027       2.73804  
183s312e                      -18.26540      31.25000    1510.00000        32  
 tmp_max_ave   tmp_min_ave    tmp_max_sd    tmp_min_sd       pcp_ave        pcp_sd      pcp_skew       wet_dry       wet_wet      pcp_days       pcp_hhr       slr_ave       dew_ave       wnd_ave  
    26.36500      15.22750       3.77400       1.64665     160.12500       8.36589       2.78378       0.27461       0.44059      18.93750      21.61190      21.21750       0.73581       2.64664  
    25.53890      14.72630       3.65538       1.87627     143.32300       9.72844       3.66590       0.21750       0.44643      15.75000      30.51330      20.77310       0.76247       2.81281  
    25.60980      13.91110       3.63408       1.97841      76.76450       5.76674       5.46101       0.21281       0.43601      14.40620      23.58800      19.63560       0.74570       2.81290  
    24.90460      11.76090       3.37533       2.38742      29.93170       3.20019       7.78590       0.13390       0.38372       8.06250      18.82170      18.99010       0.68023       2.87289  
    23.45690       8.52411       3.46401       2.53961      10.96870       1.82015      11.19610       0.07094       0.30769       3.65625      12.44890      18.19090       0.61604       2.84153  
    21.35850       6.05367       3.21338       2.69036       3.54593       0.49329       6.01399       0.05916       0.29630       2.53125       1.98689      17.14330       0.60831       3.04171  
    21.12740       5.92921       3.50675       2.34423       3.87464       0.45841       4.92169       0.06800       0.29474       2.96875       1.70031      18.03460       0.59671       3.36438  
    24.56030       7.26567       3.55600       2.66414       1.93825       0.43121      10.38450       0.03253       0.15385       1.21875       2.17074      21.90660       0.51045       3.52447  
    29.10560      10.09510       3.73958       2.83962       2.61054       0.55759      11.44080       0.03395       0.27660       1.46875       3.82058      25.49400       0.43456       3.74408  
    30.25860      12.85360       3.71727       2.60555      24.66400       3.49702       7.30974       0.09178       0.32026       4.78125      14.67790      24.75680       0.46951       3.66270  
    29.73430      14.88230       3.85618       2.03547      61.10140       4.83023       4.10736       0.19016       0.42000      10.93750      17.38760      22.03000       0.53602       3.10439  
    27.25820      15.33430       4.17884       1.70463     185.79900      10.48090       3.19446       0.26053       0.44040      18.87500      26.80840      20.76900       0.68394       2.64633  
183s316e                      -18.26540      31.56250    1629.00000        32  
 tmp_max_ave   tmp_min_ave    tmp_max_sd    tmp_min_sd       pcp_ave        pcp_sd      pcp_skew       wet_dry       wet_wet      pcp_days       pcp_hhr       slr_ave       dew_ave       wnd_ave  
    25.86380      14.93310       3.70730       1.77547     179.48000       9.17068       2.94597       0.32044       0.43810      19.68750      27.42000      21.05010       0.75644       2.55701  
    25.01420      14.48350       3.60536       2.04677     157.60100      10.24830       3.47562       0.26087       0.45522      16.75000      27.64770      20.34490       0.78345       2.70799  
    25.10160      13.61810       3.66371       2.14013      88.93230       6.19328       5.23821       0.24194       0.41331      15.50000      27.12080      19.18370       0.76759       2.67958  
    24.37470      11.31370       3.43990       2.58592      37.91430       3.47974       5.26618       0.16012       0.36577       9.31250      15.44880      18.51400       0.70696       2.70697  
    22.94400       7.94817       3.57563       2.77028      14.06290       2.10231       9.72133       0.08521       0.33562       4.56250      13.13860      17.82900       0.64407       2.64149  
    20.90200       5.45321       3.30375       2.90279       5.32260       0.66516       5.55216       0.08333       0.26852       3.37500       2.55286      16.76080       0.63549       2.80603  
    20.64210       5.40881       3.61275       2.58259       6.09996       0.64987       4.91983       0.08488       0.33333       4.12500       2.47295      17.54880       0.62293       3.09497  
    24.06190       6.55806       3.60379       2.81890       3.14508       0.63935      10.29430       0.04051       0.22222       1.68750       3.23118      21.56890       0.53839       3.24807  
    28.54900       9.27451       3.74341       2.96142       3.69890       0.75215      12.72050       0.04004       0.27869       1.90625       5.57797      25.24480       0.46342       3.50258  
    29.66920      12.12790       3.74750       2.75955      30.71110       3.97736       6.36086       0.11262       0.32609       5.75000      15.66080      24.46590       0.49723       3.45326  
    29.21760      14.35890       3.83427       2.12638      79.09210       5.92906       3.38627       0.20790       0.41005      11.81250      16.08320      21.88700       0.56063       2.96909  
    26.73700      15.01670       4.11196       1.79999     204.54300      10.36070       2.70536       0.29107       0.46625      19.90620      24.35460      20.70630       0.70349       2.55549  
183s319e                      -18.26540      31.87500    1600.00000        32  
 tmp_max_ave   tmp_min_ave    tmp_max_sd    tmp_min_sd       pcp_ave        pcp_sd      pcp_skew       wet_dry       wet_wet      pcp_days       pcp_hhr       slr_ave       dew_ave       wnd_ave  
    25.82150      15.12430       3.65589       1.80716     187.59600       9.86408       3.44665       0.33721       0.44136      20.25000      36.49230      20.94940       0.76534       2.43041  
    24.94530      14.73720       3.51890       2.03711     163.13500      10.99120       3.99534       0.29254       0.44640      17.78120      40.02510      20.10130       0.79238       2.56318  
    25.03900      13.86270       3.63792       2.15800      90.24430       6.41468       5.57392       0.27511       0.42697      16.68750      28.96650      19.01220       0.77702       2.53892  
    24.33440      11.50060       3.40702       2.62863      36.80940       3.11284       4.60961       0.17323       0.39077      10.15620      11.09280      18.31580       0.71876       2.58844  
    22.92160       8.14664       3.63902       2.79475      14.50290       1.92744       8.30080       0.09375       0.34591       4.96875      10.64580      17.48220       0.65751       2.51937  
    20.92270       5.64464       3.32454       2.92461       6.33087       0.75049       5.46923       0.09952       0.25397       3.93750       2.60573      16.39920       0.64763       2.66968  
    20.67570       5.57391       3.63343       2.68706       7.59811       0.79176       4.99025       0.09552       0.29861       4.50000       3.19333      17.11960       0.63339       2.92753  
    24.08410       6.66205       3.61462       2.84082       3.97506       0.73376       9.84425       0.04531       0.27692       2.03125       3.98220      21.29050       0.55077       3.09371  
    28.52570       9.32321       3.77622       2.99450       4.08055       0.86249      12.69350       0.04111       0.28333       1.87500       6.26590      24.99490       0.47789       3.38186  
    29.63900      12.15190       3.82885       2.75579      29.47910       3.72769       6.22145       0.12610       0.33166       6.21875      13.82350      24.29200       0.51207       3.33576  
    29.14980      14.40120       3.79815       2.16588      83.89970       6.35945       3.54651       0.23211       0.40569      12.09380      17.95600      21.78730       0.57341       2.87269  
    26.71070      15.17720       4.06637       1.83797     200.04300       9.52455       2.36280       0.32070       0.44306      20.03120      20.56350      20.84030       0.71081       2.45853  
183s322e                      -18.26540      32.18750    1418.00000        32  
 tmp_max_ave   tmp_min_ave    tmp_max_sd    tmp_min_sd       pcp_ave        pcp_sd      pcp_skew       wet_dry       wet_wet      pcp_days       pcp_hhr       slr_ave       dew_ave       wnd_ave  
    25.29010      15.16720       3.55678       1.79378     222.30400      11.66650       3.61582       0.33548       0.46188      21.31250      45.62590      20.06890       0.78614       2.32727  
    24.43210      14.84880       3.41426       1.95868     188.59100      12.68200       4.54708       0.37847       0.44156      19.25000      57.72870      19.12890       0.81355       2.43560  
    24.50130      13.93050       3.48906       2.13149      96.37890       7.09807       6.47286       0.34719       0.42882      18.21880      34.33420      18.40910       0.79904       2.42679  
    23.82730      11.60930       3.28533       2.54457      35.55720       2.72284       4.71541       0.17815       0.40548      11.40620      12.14280      17.90750       0.74132       2.50711  
    22.43220       8.30347       3.58569       2.70083      15.44570       1.71033       6.64782       0.10038       0.37113       6.06250       8.16327      17.02180       0.68146       2.44079  
    20.48330       5.83329       3.26362       2.85677       7.95817       0.82661       5.05054       0.11347       0.32278       4.93750       3.45288      16.03000       0.66896       2.61095  
    20.26670       5.68741       3.56087       2.67172       9.28948       0.94411       5.26444       0.11366       0.28485       5.15625       3.81097      16.72870       0.65226       2.86109  
    23.57410       6.78297       3.62244       2.74593       5.20896       0.82745       8.98917       0.06519       0.24138       2.71875       4.54096      20.97930       0.57119       3.05960  
    27.85420       9.33262       3.80648       2.88761       5.16335       0.91250       9.28204       0.05695       0.28049       2.56250       5.00989      24.68240       0.50052       3.37728  
    28.96640      12.10260       3.87247       2.60359      29.14540       3.43238       6.26004       0.13642       0.33953       6.71875      12.73790      24.08880       0.53563       3.32180  
    28.52530      14.26190       3.80051       2.13065      96.14440       7.13347       4.17173       0.22889       0.40749      13.34380      26.71040      21.43310       0.59841       2.83121  
    26.15560      15.10560       4.04849       1.86840     224.26100       9.98390       2.09292       0.33229       0.45263      20.78120      21.29410      20.28090       0.73355       2.38223  
183s325e                      -18.26540      32.50000    1598.00000        32  
 tmp_max_ave   tmp_min_ave    tmp_max_sd    tmp_min_sd       pcp_ave        pcp_sd      pcp_skew       wet_dry       wet_wet      pcp_days       pcp_hhr       slr_ave       dew_ave       wnd_ave  
    24.65130      14.99970       3.36360       1.84250     272.74900      13.35600       3.29911       0.39194       0.45202      22.46880      51.92600      19.37550       0.81352       2.30400  
    23.83380      14.70600       3.31158       1.92782     232.12900      14.35140       4.97708       0.42128       0.46936      20.90620      72.83080      18.37070       0.84212       2.38048  
    23.76580      13.65450       3.29713       2.22966     120.56900       7.88948       6.17803       0.36676       0.43235      20.09380      41.26880      18.06250       0.83092       2.37273  