wnd.cli: Wind speed file names - file written by SWAT+ editor 2020-10-04 22:33:44.799358
filename
stwnd10000.wnd
stwnd10001.wnd
stwnd10002.wnd
stwnd10003.wnd
stwnd10004.wnd
stwnd10005.wnd
stwnd10006.wnd
stwnd10007.wnd
stwnd10008.wnd
stwnd10009.wnd
stwnd10010.wnd
stwnd10011.wnd
