aquifer.con: written by SWAT+ editor v1.2.3 on 2021-01-23 05:28
      id  name                gis_id          area           lat           lon          elev       aqu               wst       cst      ovfl      rule   out_tot       obj_typ    obj_id       hyd_typ          frac  
       1  aqu010                  10  185540.22000     -18.36532      31.91233    1471.58987         1     sta1832s3192e         0         0         0         2           sdc         2           tot       1.00000           aqu        14           rhg       1.00000  
       2  aqu020                  20  215343.36000     -18.47694      31.64914    1404.16964         2     sta1862s3162e         0         0         0         2           sdc         6           tot       1.00000           aqu        14           rhg       1.00000  
       3  aqu030                  30   96769.08000     -18.49001      32.20944    1495.05348         3     sta1842s3233e         0         0         0         2           sdc         1           tot       1.00000           aqu        14           rhg       1.00000  
       4  aqu040                  40   90499.68000     -18.55072      31.27881    1407.47232         4     sta1852s3122e         0         0         0         2           sdc         3           tot       1.00000           aqu        14           rhg       1.00000  
       5  aqu050                  50  209439.27000     -18.87427      31.61403    1175.34957         5     sta1880s3165e         0         0         0         2           sdc        12           tot       1.00000           aqu        14           rhg       1.00000  
       6  aqu060                  60   53588.79000     -18.73849      32.07402    1190.16241         6     sta1873s3202e         0         0         0         2           sdc         5           tot       1.00000           aqu        14           rhg       1.00000  
       7  aqu070                  70   61896.96000     -18.77666      31.24751    1428.36156         7     sta1888s3112e         0         0         0         2           sdc         4           tot       1.00000           aqu        14           rhg       1.00000  
       8  aqu080                  80   61466.04000     -18.86807      31.80603    1087.50460         8     sta1880s3165e         0         0         0         2           sdc         8           tot       1.00000           aqu        14           rhg       1.00000  
       9  aqu090                  90   71881.83000     -18.94598      32.17937    1055.78645         9     sta1877s3222e         0         0         0         2           sdc        13           tot       1.00000           aqu        14           rhg       1.00000  
      10  aqu100                 100   41357.79000     -18.92973      32.03579     990.51523        10     sta1908s3192e         0         0         0         2           sdc         7           tot       1.00000           aqu        14           rhg       1.00000  
      11  aqu110                 110    7977.69000     -19.08251      32.00672     864.52239        11     sta1908s3192e         0         0         0         2           sdc        11           tot       1.00000           aqu        14           rhg       1.00000  
      12  aqu120                 120   13211.91000     -19.17091      31.96260     861.84563        12     sta1908s3192e         0         0         0         2           sdc        10           tot       1.00000           aqu        14           rhg       1.00000  
      13  aqu130                 130    3512.16000     -19.18954      32.04053     854.82634        13     sta1912s3212e         0         0         0         2           sdc         9           tot       1.00000           aqu        14           rhg       1.00000  
      14  aqu_deep13              13  1112484.78000     -19.18954      32.04053     854.82634        14     sta1912s3212e         0         0         0         0  
