chandeg.con: written by SWAT+ editor v1.2.3 on 2021-01-23 05:28
      id  name                gis_id          area           lat           lon          elev      lcha               wst       cst      ovfl      rule   out_tot       obj_typ    obj_id       hyd_typ          frac  
       1  cha01                    1   96769.08160     -18.49001      32.20944             0         1     sta1842s3233e         0         0         0         1           sdc         5           tot       1.00000  
       2  cha02                    2  185540.22400     -18.36532      31.91233             0         2     sta1832s3192e         0         0         0         1           sdc         5           tot       1.00000  
       3  cha03                    3   90499.68000     -18.55072      31.27881             0         3     sta1852s3122e         0         0         0         1           sdc        12           tot       1.00000  
       4  cha04                    4   61896.96000     -18.77666      31.24751             0         4     sta1888s3112e         0         0         0         1           sdc        12           tot       1.00000  
       5  cha05                    5  335898.08640     -18.73849      32.07402             0         5     sta1873s3202e         0         0         0         1           sdc         7           tot       1.00000  
       6  cha06                    6  215343.36000     -18.47694      31.64914             0         6     sta1862s3162e         0         0         0         1           sdc         7           tot       1.00000  
       7  cha07                    7  592599.24480     -18.92973      32.03579             0         7     sta1908s3192e         0         0         0         1           sdc        11           tot       1.00000  
       8  cha08                    8   61466.04160     -18.86807      31.80603             0         8     sta1880s3165e         0         0         0         1           sdc        11           tot       1.00000  
       9  cha09                    9  1112475.03360     -19.18954      32.04053             0         9     sta1912s3212e         0         0         0         0  
      10  cha10                   10  1037090.81600     -19.17091      31.96260             0        10     sta1908s3192e         0         0         0         1           sdc         9           tot       1.00000  
      11  cha11                   11  662042.98240     -19.08251      32.00672             0        11     sta1908s3192e         0         0         0         1           sdc        10           tot       1.00000  
      12  cha12                   12  361835.90400     -18.87427      31.61403             0        12     sta1880s3165e         0         0         0         1           sdc        10           tot       1.00000  
      13  cha13                   13   71881.83040     -18.94598      32.17937             0        13     sta1877s3222e         0         0         0         1           sdc         9           tot       1.00000  
