field.fld: written by SWAT+ editor v1.2.3 on 2021-01-23 05:28
name                       len            wd           ang  
fld010               500.00000     100.00000      30.00000  
fld020               500.00000     100.00000      30.00000  
fld030               500.00000     100.00000      30.00000  
fld040               500.00000     100.00000      30.00000  
fld050               500.00000     100.00000      30.00000  
fld060               500.00000     100.00000      30.00000  
fld070               500.00000     100.00000      30.00000  
fld080               500.00000     100.00000      30.00000  
fld090               500.00000     100.00000      30.00000  
fld100               500.00000     100.00000      30.00000  
fld110               500.00000     100.00000      30.00000  
fld120               500.00000     100.00000      30.00000  
fld130               500.00000     100.00000      30.00000  
