hru.con: written by SWAT+ editor v1.2.3 on 2021-01-23 05:28
      id  name                gis_id          area           lat           lon          elev       hru               wst       cst      ovfl      rule   out_tot  
       1  hru01                    1  185540.22000     -18.36532      31.91233    1471.58987         1     sta1832s3192e         0         0         0         0  
       2  hru02                    2  215343.36000     -18.47694      31.64914    1404.16964         2     sta1862s3162e         0         0         0         0  
       3  hru03                    3  296769.08000     -18.49001      32.20944    1495.05348         3     sta1842s3233e         0         0         0         0  
       4  hru04                    4   90499.68000     -18.55072      31.27881    1407.47232         4     sta1852s3122e         0         0         0         0  
       5  hru05                    5   09439.27000     -18.87427      31.61403    1175.34957         5     sta1880s3165e         0         0         0         0  
       6  hru06                    6   53588.79000     -18.73849      32.07402    1190.16241         6     sta1873s3202e         0         0         0         0  
       7  hru07                    7    1896.96000     -18.77666      31.24751    1428.36156         7     sta1888s3112e         0         0         0         0  
       8  hru08                    8   61466.04000     -18.86807      31.80603    1087.50460         8     sta1880s3165e         0         0         0         0  
       9  hru09                    9   71881.83000     -18.94598      32.17937    1055.78645         9     sta1877s3222e         0         0         0         0  
      10  hru10                   10   41357.79000     -18.92973      32.03579     990.51523        10     sta1908s3192e         0         0         0         0  
      11  hru11                   11    7977.69000     -19.08251      32.00672     864.52239        11     sta1908s3192e         0         0         0         0  
      12  hru12                   12   13211.91000     -19.17091      31.96260     861.84563        12     sta1908s3192e         0         0         0         0  
      13  hru13                   13   63512.16000     -19.18954      32.04053     854.82634        13     sta1912s3212e         0         0         0         0  
