hyd-sed-lte.cha: written by SWAT+ editor v1.2.3 on 2021-01-23 05:28
name                         order            wd            dp           slp           len          mann             k     erod_fact      cov_fact        hc_cov        eq_slp           d50          clay        carbon        dry_bd      side_slp      bed_load        t_conc     shear_bnk       hc_erod         hc_ht        hc_len  description
hydcha01                     first      79.80529       2.03347       0.00824      39.07300       0.05000       1.00000       0.01000       0.00500       0.00000       0.00100      12.00000      50.00000       0.04000       1.00000       0.50000       0.50000      10.00000       0.75000       0.10000       0.30000       0.30000  
hydcha02                     first     117.93767       2.63827       0.00554      59.60800       0.05000       1.00000       0.01000       0.00500       0.00000       0.00100      12.00000      50.00000       0.04000       1.00000       0.50000       0.50000      10.00000       0.75000       0.10000       0.30000       0.30000  
hydcha03                     first      76.66161       1.97971       0.00246      17.86590       0.05000       1.00000       0.01000       0.00500       0.00000       0.00100      12.00000      50.00000       0.04000       1.00000       0.50000       0.50000      10.00000       0.75000       0.10000       0.30000       0.30000  
hydcha04                     first      61.03674       1.70063       0.00406      10.10030       0.05000       1.00000       0.01000       0.00500       0.00000       0.00100      12.00000      50.00000       0.04000       1.00000       0.50000       0.50000      10.00000       0.75000       0.10000       0.30000       0.30000  
hydcha05                     first     168.38920       3.34523       0.00653      31.38990       0.05000       1.00000       0.01000       0.00500       0.00000       0.00100      12.00000      50.00000       0.04000       1.00000       0.50000       0.50000      10.00000       0.75000       0.10000       0.30000       0.30000  
hydcha06                     first     128.96403       2.80024       0.00598      80.70480       0.05000       1.00000       0.01000       0.00500       0.00000       0.00100      12.00000      50.00000       0.04000       1.00000       0.50000       0.50000      10.00000       0.75000       0.10000       0.30000       0.30000  
hydcha07                     first     236.72622       4.19805       0.00234      18.39950       0.05000       1.00000       0.01000       0.00500       0.00000       0.00100      12.00000      50.00000       0.04000       1.00000       0.50000       0.50000      10.00000       0.75000       0.10000       0.30000       0.30000  
hydcha08                     first      60.78142       1.69589       0.00279      13.26310       0.05000       1.00000       0.01000       0.00500       0.00000       0.00100      12.00000      50.00000       0.04000       1.00000       0.50000       0.50000      10.00000       0.75000       0.10000       0.30000       0.30000  
hydcha09                     first     345.43304       5.40082       0.00392       4.33920       0.05000       1.00000       0.01000       0.00500       0.00000       0.00100      12.00000      50.00000       0.04000       1.00000       0.50000       0.50000      10.00000       0.75000       0.10000       0.30000       0.30000  
hydcha10                     first     331.19196       5.25134       0.00234       8.99210       0.05000       1.00000       0.01000       0.00500       0.00000       0.00100      12.00000      50.00000       0.04000       1.00000       0.50000       0.50000      10.00000       0.75000       0.10000       0.30000       0.30000  
hydcha11                     first     253.00052       4.38832       0.00150       6.68560       0.05000       1.00000       0.01000       0.00500       0.00000       0.00100      12.00000      50.00000       0.04000       1.00000       0.50000       0.50000      10.00000       0.75000       0.10000       0.30000       0.30000  
hydcha12                     first     176.07460       3.44626       0.00448      97.12430       0.05000       1.00000       0.01000       0.00500       0.00000       0.00100      12.00000      50.00000       0.04000       1.00000       0.50000       0.50000      10.00000       0.75000       0.10000       0.30000       0.30000  
hydcha13                     first      66.76690       1.80547       0.00419      25.99890       0.05000       1.00000       0.01000       0.00500       0.00000       0.00100      12.00000      50.00000       0.04000       1.00000       0.50000       0.50000      10.00000       0.75000       0.10000       0.30000       0.30000  
