hydrology.hyd: written by SWAT+ editor v1.2.3 on 2021-01-23 05:28
name                 lat_ttime       lat_sed       can_max          esco          epco   orgn_enrich   orgp_enrich  evap_pothole       bio_mix         perco      lat_orgn      lat_orgp      harg_pet     cn_plntet  
hyd01                  0.00000       0.00000       1.00000       0.95000       1.00000       0.00000       0.00000       0.50000       0.20000       0.50000       0.00000       0.00000       0.00000       1.00000  
hyd02                  0.00000       0.00000       1.00000       0.95000       1.00000       0.00000       0.00000       0.50000       0.20000       0.50000       0.00000       0.00000       0.00000       1.00000  
hyd03                  0.00000       0.00000       1.00000       0.95000       1.00000       0.00000       0.00000       0.50000       0.20000       0.50000       0.00000       0.00000       0.00000       1.00000  
hyd04                  0.00000       0.00000       1.00000       0.95000       1.00000       0.00000       0.00000       0.50000       0.20000       0.50000       0.00000       0.00000       0.00000       1.00000  
hyd05                  0.00000       0.00000       1.00000       0.95000       1.00000       0.00000       0.00000       0.50000       0.20000       0.50000       0.00000       0.00000       0.00000       1.00000  
hyd06                  0.00000       0.00000       1.00000       0.95000       1.00000       0.00000       0.00000       0.50000       0.20000       0.50000       0.00000       0.00000       0.00000       1.00000  
hyd07                  0.00000       0.00000       1.00000       0.95000       1.00000       0.00000       0.00000       0.50000       0.20000       0.50000       0.00000       0.00000       0.00000       1.00000  
hyd08                  0.00000       0.00000       1.00000       0.95000       1.00000       0.00000       0.00000       0.50000       0.20000       0.50000       0.00000       0.00000       0.00000       1.00000  
hyd09                  0.00000       0.00000       1.00000       0.95000       1.00000       0.00000       0.00000       0.50000       0.20000       0.50000       0.00000       0.00000       0.00000       1.00000  
hyd10                  0.00000       0.00000       1.00000       0.95000       1.00000       0.00000       0.00000       0.50000       0.20000       0.50000       0.00000       0.00000       0.00000       1.00000  
hyd11                  0.00000       0.00000       1.00000       0.95000       1.00000       0.00000       0.00000       0.50000       0.20000       0.50000       0.00000       0.00000       0.00000       1.00000  
hyd12                  0.00000       0.00000       1.00000       0.95000       1.00000       0.00000       0.00000       0.50000       0.20000       0.50000       0.00000       0.00000       0.00000       1.00000  
hyd13                  0.00000       0.00000       1.00000       0.95000       1.00000       0.00000       0.00000       0.50000       0.20000       0.50000       0.00000       0.00000       0.00000       1.00000  
