initial.cha: written by SWAT+ editor v1.2.3 on 2021-01-23 05:28
name                       org_min              pest              path              hmet              salt  description       
initcha1                   no_init              null              null              null              null  null              
