ls_unit.ele: written by SWAT+ editor v1.2.3 on 2021-01-23 05:28
      id  name                   obj_typ  obj_typ_no      bsn_frac      sub_frac      reg_frac  
       1  hru01                      hru           1     1.6678E-1       1.00000       0.00000  
       2  hru02                      hru           2     1.9357E-1       1.00000       0.00000  
       3  hru03                      hru           3     8.6985E-2       1.00000       0.00000  
       4  hru04                      hru           4     8.1349E-2       1.00000       0.00000  
       5  hru05                      hru           5     1.8826E-1       1.00000       0.00000  
       6  hru06                      hru           6     4.8170E-2       1.00000       0.00000  
       7  hru07                      hru           7     5.5638E-2       1.00000       0.00000  
       8  hru08                      hru           8     5.5251E-2       1.00000       0.00000  
       9  hru09                      hru           9     6.4614E-2       1.00000       0.00000  
      10  hru10                      hru          10     3.7176E-2       1.00000       0.00000  
      11  hru11                      hru          11     7.1711E-3       1.00000       0.00000  
      12  hru12                      hru          12     1.1876E-2       1.00000       0.00000  
      13  hru13                      hru          13     3.1570E-3       1.00000       0.00000  
