ls_unit.def: written by SWAT+ editor v1.2.3 on 2021-01-23 05:28
13
      id              name          area  elem_tot  elements  
       1            rtu010   96769.08000         1         3  
       2            rtu020  185540.22000         1         1  
       3            rtu030   90499.68000         1         4  
       4            rtu040   61896.96000         1         7  
       5            rtu050   53588.79000         1         6  
       6            rtu060  215343.36000         1         2  
       7            rtu070   41357.79000         1        10  
       8            rtu080   61466.04000         1         8  
       9            rtu090    3512.16000         1        13  
      10            rtu100   13211.91000         1        12  
      11            rtu110    7977.69000         1        11  
      12            rtu120  209439.27000         1         5  
      13            rtu130   71881.83000         1         9  
