object.cnt: written by SWAT+ editor v1.2.3 on 2021-01-23 05:28
name                   ls_area      tot_area       obj       hru      lhru       rtu       mfl       aqu       cha       res       rec      exco       dlr       can       pmp       out      lcha     aqu2d       hrd       wro  
u_sabi            1112484.78000  1112484.78000        66        13         0        13         0        14         0         0        13         0         0         0         0         0        13         0         0         0  
