plant.ini: written by SWAT+ editor v1.2.3 on 2021-01-23 05:28
pcom_name          plt_cnt  rot_yr_ini          plt_name     lc_status      lai_init       bm_init      phu_init      plnt_pop      yrs_init      rsd_init  
agrl_comm                1         1  
                                        agrl             n       0.00000       0.00000       0.00000       0.00000       0.00000   10000.00000  
shrb_comm                1         1  
                                        shrb             n       0.00000       0.00000       0.00000       0.00000       0.00000   10000.00000  
gras_comm                1         1  
                                        gras             n       0.00000       0.00000       0.00000       0.00000       0.00000   10000.00000  
frst_comm                1         1  
                                        frst             y       2.00000   50000.00000       0.00000       0.00000       1.00000   10000.00000  
