recall.con: written by SWAT+ editor v1.2.3 on 2021-01-23 05:28
      id  name                gis_id          area           lat           lon          elev       rec               wst       cst      ovfl      rule   out_tot       obj_typ    obj_id       hyd_typ          frac  
       1  pt03                     3       0.00001     -18.51009      32.14038    1393.00000         1     sta1838s3212e         0         0         0         1           sdc         1           tot       1.00000  
       2  pt05                     5       0.00001     -18.33457      31.86190    1401.00000         2     sta1832s3192e         0         0         0         1           sdc         2           tot       1.00000  
       3  pt07                     7       0.00001     -18.62360      31.35331    1292.00000         3     sta1858s3142e         0         0         0         1           sdc         3           tot       1.00000  
       4  pt09                     9       0.00001     -18.73659      31.34965    1287.00000         4     sta1858s3142e         0         0         0         1           sdc         4           tot       1.00000  
       5  pt11                    11       0.00001     -18.71933      32.01726    1070.00000         5     sta1873s3202e         0         0         0         1           sdc         5           tot       1.00000  
       6  pt13                    13       0.00001     -18.47581      31.57971    1349.00000         6     sta1862s3162e         0         0         0         1           sdc         6           tot       1.00000  
       7  pt15                    15       0.00001     -18.92556      31.95282     866.00000         7     sta1908s3192e         0         0         0         1           sdc         7           tot       1.00000  
       8  pt17                    17       0.00001     -19.00178      31.91301     859.00000         8     sta1908s3192e         0         0         0         1           sdc         8           tot       1.00000  
       9  pt18                    18       0.00001     -19.17486      32.03171     792.00000         9     sta1912s3212e         0         0         0         1           sdc         9           tot       1.00000  
      10  pt20                    20       0.00001     -19.12255      31.98495     813.00000        10     sta1908s3192e         0         0         0         1           sdc        10           tot       1.00000  
      11  pt22                    22       0.00001     -19.06960      31.96902     822.00000        11     sta1908s3192e         0         0         0         1           sdc        11           tot       1.00000  
      12  pt24                    24       0.00001     -18.72989      31.42056    1248.00000        12     sta1858s3142e         0         0         0         1           sdc        12           tot       1.00000  
      13  pt26                    26       0.00001     -19.02900      32.14031     901.00000        13     sta1912s3212e         0         0         0         1           sdc        13           tot       1.00000  
