rout_unit.def: written by SWAT+ editor v1.2.3 on 2021-01-23 05:28
      id              name  elem_tot  elements  
       1            rtu010         1         3  
       2            rtu020         1         1  
       3            rtu030         1         4  
       4            rtu040         1         7  
       5            rtu050         1         6  
       6            rtu060         1         2  
       7            rtu070         1        10  
       8            rtu080         1         8  
       9            rtu090         1        13  
      10            rtu100         1        12  
      11            rtu110         1        11  
      12            rtu120         1         5  
      13            rtu130         1         9  
