rout_unit.con: written by SWAT+ editor v1.2.3 on 2021-01-23 05:28
      id  name                gis_id          area           lat           lon          elev       rtu               wst       cst      ovfl      rule   out_tot       obj_typ    obj_id       hyd_typ          frac  
       1  rtu010                  10   96769.08000     -18.49001      32.20944    1495.05348         1     sta1842s3233e         0         0         0         2           sdc         1           tot       1.00000           aqu         3           rhg       1.00000  
       2  rtu020                  20  185540.22000     -18.36532      31.91233    1471.58987         2     sta1832s3192e         0         0         0         2           sdc         2           tot       1.00000           aqu         1           rhg       1.00000  
       3  rtu030                  30   90499.68000     -18.55072      31.27881    1407.47232         3     sta1852s3122e         0         0         0         2           sdc         3           tot       1.00000           aqu         4           rhg       1.00000  
       4  rtu040                  40   61896.96000     -18.77666      31.24751    1428.36156         4     sta1888s3112e         0         0         0         2           sdc         4           tot       1.00000           aqu         7           rhg       1.00000  
       5  rtu050                  50   53588.79000     -18.73849      32.07402    1190.16241         5     sta1873s3202e         0         0         0         2           sdc         5           tot       1.00000           aqu         6           rhg       1.00000  
       6  rtu060                  60  215343.36000     -18.47694      31.64914    1404.16964         6     sta1862s3162e         0         0         0         2           sdc         6           tot       1.00000           aqu         2           rhg       1.00000  
       7  rtu070                  70   41357.79000     -18.92973      32.03579     990.51523         7     sta1908s3192e         0         0         0         2           sdc         7           tot       1.00000           aqu        10           rhg       1.00000  
       8  rtu080                  80   61466.04000     -18.86807      31.80603    1087.50460         8     sta1880s3165e         0         0         0         2           sdc         8           tot       1.00000           aqu         8           rhg       1.00000  
       9  rtu090                  90    3512.16000     -19.18954      32.04053     854.82634         9     sta1912s3212e         0         0         0         2           sdc         9           tot       1.00000           aqu        13           rhg       1.00000  
      10  rtu100                 100   13211.91000     -19.17091      31.96260     861.84563        10     sta1908s3192e         0         0         0         2           sdc        10           tot       1.00000           aqu        12           rhg       1.00000  
      11  rtu110                 110    7977.69000     -19.08251      32.00672     864.52239        11     sta1908s3192e         0         0         0         2           sdc        11           tot       1.00000           aqu        11           rhg       1.00000  
      12  rtu120                 120  209439.27000     -18.87427      31.61403    1175.34957        12     sta1880s3165e         0         0         0         2           sdc        12           tot       1.00000           aqu         5           rhg       1.00000  
      13  rtu130                 130   71881.83000     -18.94598      32.17937    1055.78645        13     sta1877s3222e         0         0         0         2           sdc        13           tot       1.00000           aqu         9           rhg       1.00000  
