soil_plant.ini: written by SWAT+ editor v1.2.3 on 2021-01-23 05:28
name                   sw_frac         nutrients              pest              path              hmet              salt  
soilplant1             0.00000          soilnut1              null              null              null              null  
