soils.sol: written by SWAT+ editor v1.2.3 on 2021-01-23 05:28
name                            nly           hyd_grp        dp_tot    anion_excl      perc_crk  texture                              dp            bd           awc        soil_k        carbon          clay          silt          sand          rock           alb        usle_k            ec         caco3            ph  
Lg2-1a-784                        2                 C    1000.00000       0.50000       0.50000  SANDY_LOAM                 
                                                                                                                               300.00000       1.40000       0.17000      39.36000       0.50000      15.00000       6.00000      78.00000       0.00000       0.18000       0.30000       0.00000       0.00000       0.00000  
                                                                                                                              1000.00000       1.60000       0.17000       6.28000       0.20000      30.00000       7.00000      64.00000       0.00000       0.33000       0.30000       0.00000       0.00000       0.00000  
Lf10-1a-733                       2                 C    1000.00000       0.50000       0.50000  SANDY_LOAM                 
                                                                                                                               300.00000       1.50000       0.14000      19.13000       0.60000      14.00000      15.00000      71.00000       0.00000       0.15000       0.25000       0.00000       0.00000       0.00000  
                                                                                                                              1000.00000       1.40000       0.14000      13.66000       0.30000      26.00000      14.00000      61.00000       0.00000       0.27000       0.25000       0.00000       0.00000       0.00000  
Lf81-2a-767                       2                 C    1000.00000       0.50000       0.50000  SANDY_CLAY_LOAM            
                                                                                                                               300.00000       1.40000       0.17000      20.07000       0.40000      21.00000      10.00000      68.00000       0.00000       0.22000       0.24000       0.00000       0.00000       0.00000  
                                                                                                                              1000.00000       1.50000       0.17000       6.30000       0.30000      37.00000      11.00000      52.00000       0.00000       0.27000       0.24000       0.00000       0.00000       0.00000  
Lg3-1a-785                        2                 C    1000.00000       0.50000       0.50000  SANDY_LOAM                 
                                                                                                                               300.00000       1.30000       0.17000      40.86000       0.60000      15.00000      12.00000      73.00000       0.00000       0.15000       0.32000       0.00000       0.00000       0.00000  
                                                                                                                              1000.00000       1.40000       0.17000      17.40000       0.40000      24.00000      11.00000      66.00000       0.00000       0.22000       0.32000       0.00000       0.00000       0.00000  
I-Bc-V-642                        2                 C     690.00000       0.50000       0.50000  CLAY                       
                                                                                                                               300.00000       1.20000       0.10000      13.95000       1.10000      44.00000      31.00000      25.00000       0.00000       0.05000       0.23000       0.00000       0.00000       0.00000  
                                                                                                                              1000.00000       1.30000       0.10000       8.15000       0.60000      48.00000      30.00000      23.00000       0.00000       0.15000       0.23000       0.00000       0.00000       0.00000  
Lf82-1a-770                       2                 C    1000.00000       0.50000       0.50000  SANDY_LOAM                 
                                                                                                                               300.00000       1.40000       0.14000      20.56000       0.50000      16.00000      18.00000      66.00000       0.00000       0.18000       0.26000       0.00000       0.00000       0.00000  
                                                                                                                              1000.00000       1.40000       0.14000      10.70000       0.20000      27.00000      17.00000      56.00000       0.00000       0.33000       0.26000       0.00000       0.00000       0.00000  
