sweep.ops: written by SWAT+ editor v1.2.3 on 2021-01-23 05:28
name                   swp_eff     frac_curb  description
high_eff               0.80000       0.90000  
