time.sim: written by SWAT+ editor v1.2.3 on 2021-01-23 05:28
day_start  yrc_start   day_end   yrc_end      step  
       0      1991         0      1999         0  
