topography.hyd: written by SWAT+ editor v1.2.3 on 2021-01-23 05:28
name                       slp       slp_len       lat_len      dist_cha         depos  
topohru01              0.05740      30.00000      30.00000     121.00000       0.00000  
topohru02              0.05500      30.00000      30.00000     121.00000       0.00000  
topohru03              0.05472      30.00000      30.00000     121.00000       0.00000  
topohru04              0.03429      60.00000      60.00000     121.00000       0.00000  
topohru05              0.06514      30.00000      30.00000     121.00000       0.00000  
topohru06              0.08185      10.00000      10.00000     121.00000       0.00000  
topohru07              0.03377      60.00000      60.00000     121.00000       0.00000  
topohru08              0.07293      30.00000      30.00000     121.00000       0.00000  
topohru09              0.06487      30.00000      30.00000     121.00000       0.00000  
topohru10              0.08755      10.00000      10.00000     121.00000       0.00000  
topohru11              0.02414      90.00000      90.00000     121.00000       0.00000  
topohru12              0.04564      60.00000      60.00000     121.00000       0.00000  
topohru13              0.08697      10.00000      10.00000     121.00000       0.00000  
toportu010             0.05472     121.00000     121.00000     121.00000       0.00000  
toportu020             0.05740     121.00000     121.00000     121.00000       0.00000  
toportu030             0.03429     121.00000     121.00000     121.00000       0.00000  
toportu040             0.03377     121.00000     121.00000     121.00000       0.00000  
toportu050             0.08185     121.00000     121.00000     121.00000       0.00000  
toportu060             0.05500     121.00000     121.00000     121.00000       0.00000  
toportu070             0.08755     121.00000     121.00000     121.00000       0.00000  
toportu080             0.07293     121.00000     121.00000     121.00000       0.00000  
toportu090             0.08697     121.00000     121.00000     121.00000       0.00000  
toportu100             0.04564     121.00000     121.00000     121.00000       0.00000  
toportu110             0.02414     121.00000     121.00000     121.00000       0.00000  
toportu120             0.06514     121.00000     121.00000     121.00000       0.00000  
toportu130             0.06487     121.00000     121.00000     121.00000       0.00000  
